tests/data/controllers/DSSfiles/HECO19021_VLN_Node.Txt

LINE-GROUND and LINE-LINE VOLTAGES BY BUS & NODE

Bus       Node    VLN (kV)   Angle      pu     Base kV    Node-Node   VLL (kV)  Angle      pu

SOURCEBUS 1       7.1996 /_    0.0         1    12.470        1-2      12.47 /_   30.0         1
   -      2       7.1996 /_ -120.0         1    12.470        2-3      12.47 /_  -90.0         1
   -      3       7.1996 /_  120.0         1    12.470        3-1      12.47 /_  150.0         1
110 ..... 1      0.24905 /_    1.3    1.0394     0.415
110_2 ... 1      0.24957 /_    1.4    1.0416     0.415
111 ..... 1       0.2465 /_    1.2    1.0288     0.415
111_2 ... 1      0.24637 /_    1.2    1.0282     0.415
112 ..... 1        0.247 /_    1.2    1.0309     0.415
112_2 ... 1      0.24712 /_    1.3    1.0314     0.415
113 ..... 1      0.24637 /_    1.2    1.0283     0.415
113_2 ... 1      0.24629 /_    1.2    1.0279     0.415
TSF ..... 1      0.24003 /_    0.5    1.0018     0.415
T1 ...... 1      0.24003 /_    0.5    1.0018     0.415
1750 .... 1      0.24003 /_    0.5    1.0018     0.415
T2 ...... 1      0.24003 /_    0.5    1.0018     0.415
1751 .... 1      0.24003 /_    0.5    1.0018     0.415
T3 ...... 1      0.24003 /_    0.5    1.0018     0.415
1756 .... 1      0.24003 /_    0.5    1.0018     0.415
1755 .... 1      0.24003 /_    0.5    1.0018     0.415
T4 ...... 1      0.24003 /_    0.5    1.0018     0.415
T5 ...... 1      0.24057 /_    0.6     1.004     0.415
1747 .... 1      0.24057 /_    0.6     1.004     0.415
T6 ...... 1      0.24179 /_    0.7    1.0091     0.415
1741 .... 1      0.24179 /_    0.7    1.0091     0.415
T7 ...... 1      0.24262 /_    0.8    1.0126     0.415
1737 .... 1      0.24262 /_    0.8    1.0126     0.415
P6 ...... 1       0.2434 /_    0.9    1.0159     0.415
T8 ...... 1      0.24474 /_    1.0    1.0215     0.415
103 ..... 1      0.24474 /_    1.0    1.0215     0.415
T9 ...... 1      0.24604 /_    1.1    1.0269     0.415
109 ..... 1      0.24604 /_    1.1    1.0269     0.415
T10 ..... 1      0.24658 /_    1.2    1.0291     0.415
T11 ..... 1      0.24659 /_    1.2    1.0292     0.415
P1 ...... 1      0.24656 /_    1.2    1.0291     0.415
110-PV .. 1      0.25075 /_    1.4    1.0465     0.415
111-PV .. 1      0.24709 /_    1.2    1.0313     0.415
113-PV .. 1      0.24656 /_    1.2    1.0291     0.415
112-PV .. 1      0.24745 /_    1.3    1.0328     0.415
